#======================================================================

# CRYSTAL DATA

#----------------------------------------------------------------------

data_VESTA_phase_1


_chemical_name_common                  ''
_cell_length_a                         7.88320
_cell_length_b                         7.76100
_cell_length_c                         10.21270
_cell_angle_alpha                      90
_cell_angle_beta                       103.48140
_cell_angle_gamma                      90
_space_group_name_H-M_alt              'P 1'
_space_group_IT_number                 1

loop_
_space_group_symop_operation_xyz
   'x, y, z'

loop_
   _atom_site_label
   _atom_site_occupancy
   _atom_site_fract_x
   _atom_site_fract_y
   _atom_site_fract_z
   _atom_site_adp_type
   _atom_site_B_iso_or_equiv
   _atom_site_type_symbol
   H1         1.0     0.111170      0.838320      0.681010     Biso  1.000000 H
   H2         1.0     0.888830      0.338320      0.818990     Biso  1.000000 H
   H3         1.0     0.888830      0.161680      0.318990     Biso  1.000000 H
   H4         1.0     0.111170      0.661680      0.181010     Biso  1.000000 H
   C1         1.0     0.023160      0.813950      0.745430     Biso  1.000000 C
   C2         1.0     0.819620      0.712230      0.823700     Biso  1.000000 C
   C3         1.0     0.519350      0.083050      0.984380     Biso  1.000000 C
   C4         1.0     0.976840      0.313950      0.754570     Biso  1.000000 C
   C5         1.0     0.180380      0.212230      0.676300     Biso  1.000000 C
   C6         1.0     0.480650      0.583050      0.515620     Biso  1.000000 C
   C7         1.0     0.976840      0.186050      0.254570     Biso  1.000000 C
   C8         1.0     0.180380      0.287770      0.176300     Biso  1.000000 C
   C9         1.0     0.480650      0.916950      0.015620     Biso  1.000000 C
   C10        1.0     0.023160      0.686050      0.245430     Biso  1.000000 C
   C11        1.0     0.819620      0.787770      0.323700     Biso  1.000000 C
   C12        1.0     0.519350      0.416950      0.484380     Biso  1.000000 C
   N1         1.0     0.025540      0.898610      0.861190     Biso  1.000000 N
   N2         1.0     0.896540      0.836070      0.909670     Biso  1.000000 N
   N3         1.0     0.892950      0.698070      0.717350     Biso  1.000000 N
   N4         1.0     0.974460      0.398610      0.638810     Biso  1.000000 N
   N5         1.0     0.103460      0.336070      0.590330     Biso  1.000000 N
   N6         1.0     0.107050      0.198070      0.782650     Biso  1.000000 N
   N7         1.0     0.974460      0.101390      0.138810     Biso  1.000000 N
   N8         1.0     0.103460      0.163930      0.090330     Biso  1.000000 N
   N9         1.0     0.107050      0.301930      0.282650     Biso  1.000000 N
   N10        1.0     0.025540      0.601390      0.361190     Biso  1.000000 N
   N11        1.0     0.896540      0.663930      0.409670     Biso  1.000000 N
   N12        1.0     0.892950      0.801930      0.217350     Biso  1.000000 N
   O1         1.0     0.393080      0.184240      0.945870     Biso  1.000000 O
   O2         1.0     0.677530      0.120710      0.996070     Biso  1.000000 O
   O3         1.0     0.606920      0.684240      0.554130     Biso  1.000000 O
   O4         1.0     0.322470      0.620710      0.503930     Biso  1.000000 O
   O5         1.0     0.606920      0.815760      0.054130     Biso  1.000000 O
   O6         1.0     0.322470      0.879290      0.003930     Biso  1.000000 O
   O7         1.0     0.393080      0.315760      0.445870     Biso  1.000000 O
   O8         1.0     0.677530      0.379290      0.496070     Biso  1.000000 O
   Zn1        1.0     0.185610      0.070540      0.944760     Biso  1.000000 Zn
   Zn2        1.0     0.814390      0.570540      0.555250     Biso  1.000000 Zn
   Zn3        1.0     0.814390      0.929460      0.055240     Biso  1.000000 Zn
   Zn4        1.0     0.185610      0.429460      0.444750     Biso  1.000000 Zn
   Cl1        1.0     0.642890      0.913970      0.344440     Biso  1.000000 Cl
   Cl2        1.0     0.357110      0.413970      0.155560     Biso  1.000000 Cl
   Cl3        1.0     0.357110      0.086030      0.655560     Biso  1.000000 Cl
   Cl4        1.0     0.642890      0.586030      0.844440     Biso  1.000000 Cl
