data_VESTA_phase_1


_chemical_name_common                  'squaric acid'
_symmetry_space_group_name_H-M	'P1'
_symmetry_Int_Tables_number	1
_symmetry_cell_setting	triclinic
loop_
_symmetry_equiv_pos_as_xyz
  x,y,z
_cell_length_a                         8.18130
_cell_length_b                         8.96210
_cell_length_c                         9.27270
_cell_angle_alpha                      90
_cell_angle_beta                       90
_cell_angle_gamma                      95.97900

loop_
   _atom_site_label
   _atom_site_fract_x
   _atom_site_fract_y
   _atom_site_fract_z
   _atom_site_type_symbol
   _atom_site_charge
   H1             0.169080      0.118070      0.750780     H  -0.018045
   H2             0.830920      0.881930      0.249220     H  -0.018034
   H3             0.330920      0.881930      0.250780     H  -0.018026
   H4             0.669080      0.118070      0.749220     H  -0.018037
   H5             0.594750      0.270460      0.302110     H  -0.171727
   H6             0.405250      0.729540      0.697890     H  -0.171738
   H7             0.094750      0.270460      0.197890     H  -0.171742
   H8             0.905250      0.729540      0.802110     H  -0.171808
   C1             0.252900      0.033080      0.760310     C  0.150975
   C2             0.747100      0.966920      0.239690     C   0.150954
   C3             0.247100      0.966920      0.260310     C   0.150924
   C4             0.752900      0.033080      0.739690     C   0.151058
   C5             0.628680      0.162980      0.267300     C   0.508362
   C6             0.371320      0.837020      0.732700     C   0.508419
   C7             0.128680      0.162980      0.232700     C   0.508399
   C8             0.871320      0.837020      0.767300     C   0.508610
   C9             0.441350      0.588370      0.005910     C   0.062446
   C10            0.558650      0.411630      0.994090     C   0.062415
   C11            0.058650      0.411630      0.505910     C   0.062486
   C12            0.941350      0.588370      0.494090     C   0.062480
   C13            0.101840      0.564500      0.507480     C   0.262898
   C14            0.898160      0.435500      0.492520     C   0.262909
   C15            0.398160      0.435500      0.007480     C   0.262949
   C16            0.601840      0.564500      0.992520     C   0.262925
   N1             0.365200      0.031320      0.866130     N   -0.482666
   N2             0.634800      0.968680      0.133870     N   -0.482681
   N3             0.134800      0.968680      0.366130     N   -0.482630
   N4             0.865200      0.031320      0.633870     N   -0.482750
   N5             0.560460      0.090870      0.151970     N   -0.098465
   N6             0.439540      0.909130      0.848030     N   -0.098542
   N7             0.060460      0.090870      0.348030     N   -0.098504
   N8             0.939540      0.909130      0.651970     N   -0.098477
   N9             0.750320      0.090480      0.324570     N   -0.628249
   N10            0.249680      0.909520      0.675430     N   -0.628285
   N11            0.250320      0.090480      0.175430     N   -0.628283
   N12            0.749680      0.909520      0.824570     N   -0.628480
   O1             0.394710      0.716460      0.015110     O   -0.482930
   O2             0.605290      0.283540      0.984890     O   -0.482901
   O3             0.105290      0.283540      0.515110     O   -0.482920
   O4             0.894710      0.716460      0.484890     O   -0.482949
   O5             0.284200      0.331400      0.011210     O   -0.477204
   O6             0.715800      0.668600      0.988790     O   -0.477177
   O7             0.215800      0.668600      0.511210     O   -0.477199
   O8             0.784200      0.331400      0.488790     O   -0.477205
   Zn1            0.405090      0.161790      0.024600     Zn  1.374597
   Zn2            0.594910      0.838210      0.975400     Zn  1.374670
   Zn3            0.094910      0.838210      0.524600     Zn  1.374578
   Zn4            0.905090      0.161790      0.475400     Zn  1.374600
